.MODEL NMOS NMOS LEVEL = 3
+ TOX =200E-10
+ PHI =0.7
+ UO =650
+ KP =120E-6
+ RSH =0
+ XJ =500E-9
+ CGDO =200E-12
+ CJ =400E-6
+ CJSW =300E-12
+NSUB =1E17  VTO =1  ETA = 3.0E-6  VMAX =1E5  NFS =1E12
+LD = 100E-9   CGSO =200E-12   PB =1  MJSW =0.5
+GAMMA = 0   DELTA = 3.0   THETA = 0.1
+KAPPA = 0.3   TPG =1   CGBO =1E-10   MJ =0.5

.MODEL PMOS PMOS LEVEL = 3
+ TOX =200E-10
+ PHI =0.7
+ UO =250
+ KP =40E-6
+ RSH =0
+ XJ =500E-9
+ CGDO =200E-12
+ CJ =400E-6
+ CJSW =300E-12
+NSUB =1E17  VTO =-1  ETA = 0  VMAX =5E4  NFS =1E12
+LD = 100E-9   CGSO =200E-12   PB =1  MJSW =0.5
+GAMMA = 0.6   DELTA = 0.1   THETA = 0.1
+KAPPA = 1   TPG =-1   CGBO =1E-10   MJ =0.5

